Info: SIMULATION PARAMETERS:
Info: TIMESTEP               2
Info: NUMBER OF STEPS        0
Info: STEPS PER CYCLE        20
Info: PERIODIC CELL BASIS 1  62 0 0
Info: PERIODIC CELL BASIS 2  0 62 0
Info: PERIODIC CELL BASIS 3  0 0 78
Info: PERIODIC CELL CENTER   0 0 0
Info: WRAPPING WATERS AROUND PERIODIC BOUNDARIES ON OUTPUT.
Info: WRAPPING ALL CLUSTERS AROUND PERIODIC BOUNDARIES ON OUTPUT.
Info: FIRST LDB TIMESTEP     100
Info: LAST LDB TIMESTEP     -1
Info: HOM BACKGROUND SCALING 1
Info: PME BACKGROUND SCALING 1
Info: MIN ATOMS PER PATCH    40
Info: INITIAL TEMPERATURE    303.15
Info: CENTER OF MASS MOVING INITIALLY? NO
Info: DIELECTRIC             1
Info: EXCLUDE                SCALED ONE-FOUR
Info: 1-4 ELECTROSTATICS SCALED BY 1
Info: MODIFIED 1-4 VDW PARAMETERS WILL BE USED
Info: DCD FILENAME           starting.POCG_5.dcd
Info: DCD FREQUENCY          10000
Info: DCD FIRST STEP         10000
Info: DCD FILE WILL CONTAIN UNIT CELL DATA
Info: XST FILENAME           starting.POCG_5.xst
Info: XST FREQUENCY          10000
Info: NO VELOCITY DCD OUTPUT
Info: NO FORCE DCD OUTPUT
Info: OUTPUT FILENAME        starting.POCG_5
Info: BINARY OUTPUT FILES WILL BE USED
Info: RESTART FILENAME       starting.POCG_5.restart
Info: RESTART FREQUENCY      10000
Info: BINARY RESTART FILES WILL BE USED
Info: SWITCHING ACTIVE
Info: VDW FORCE SWITCHING ACTIVE
Info: SWITCHING ON           10
Info: SWITCHING OFF          12
Info: PAIRLIST DISTANCE      16
Info: PAIRLIST SHRINK RATE   0.01
Info: PAIRLIST GROW RATE     0.01
Info: PAIRLIST TRIGGER       0.3
Info: PAIRLISTS PER CYCLE    2
Info: PAIRLISTS ENABLED
Info: MARGIN                 1.11
Info: HYDROGEN GROUP CUTOFF  2.5
Info: PATCH DIMENSION        19.61
Info: ENERGY OUTPUT STEPS    10000
Info: ENERGY EVALUATION STEPS    10000
Info: CROSSTERM ENERGY INCLUDED IN DIHEDRAL
Info: TIMING OUTPUT STEPS    10000
Info: ALCHEMICAL FEP ON
Info: FEP CURRENT LAMBDA VALUE     0
Info: FEP COMPARISON LAMBDA VALUE  0
Info: FEP INTRA-ALCHEMICAL NON-BONDED INTERACTIONS WILL BE RETAINED
Info: FEP INTRA-ALCHEMICAL BONDED INTERACTIONS WILL BE RETAINED
Info: FEP VDW SHIFTING COEFFICIENT 6
Info: FEP ELEC. ACTIVE FOR ANNIHILATED PARTICLES BETWEEN LAMBDA = 0 AND LAMBDA = 0.75
Info: FEP ELEC. ACTIVE FOR EXNIHILATED PARTICLES BETWEEN LAMBDA = 0.25 AND LAMBDA = 1
Info: FEP VDW ACTIVE FOR ANNIHILATED PARTICLES BETWEEN LAMBDA = 0.5 AND LAMBDA = 1
Info: FEP VDW ACTIVE FOR EXNIHILATED PARTICLES BETWEEN LAMBDA = 0 AND LAMBDA = 0.5
Info: FEP BOND ACTIVE FOR ANNIHILATED PARTICLES BETWEEN LAMBDA = 1 AND LAMBDA = 1
Info: FEP BOND ACTIVE FOR EXNIHILATED PARTICLES BETWEEN LAMBDA = 0 AND LAMBDA = 0
Info: COLLECTIVE VARIABLES CALCULATION REQUESTED
Info: COLLECTIVE VARIABLES CONFIGURATION   restraints/starting.POCG_5.col
Info: LANGEVIN DYNAMICS ACTIVE
Info: LANGEVIN TEMPERATURE   303.15
Info: LANGEVIN USING BBK INTEGRATOR
Info: LANGEVIN DAMPING COEFFICIENT IS 1 INVERSE PS
Info: LANGEVIN DYNAMICS NOT APPLIED TO HYDROGENS
Info: LANGEVIN PISTON PRESSURE CONTROL ACTIVE
Info:        TARGET PRESSURE IS 1.01325 BAR
Info:     OSCILLATION PERIOD IS 200 FS
Info:             DECAY TIME IS 100 FS
Info:     PISTON TEMPERATURE IS 303.15 K
Info:       PRESSURE CONTROL IS GROUP-BASED
Info:    INITIAL STRAIN RATE IS 0 0 0
Info:       CELL FLUCTUATION IS ANISOTROPIC
Info:     SHAPE OF CELL IS CONSTRAINED IN X-Y PLANE
Info: PARTICLE MESH EWALD (PME) ACTIVE
Info: PME TOLERANCE               1e-06
Info: PME EWALD COEFFICIENT       0.257952
Info: PME INTERPOLATION ORDER     6
Info: PME GRID DIMENSIONS         64 64 80
Info: PME MAXIMUM GRID SPACING    1
Info: PME RECIPROCAL SUM OFFLOADED TO GPU
Info: FULL ELECTROSTATIC EVALUATION FREQUENCY      2
Info: USING VERLET I (r-RESPA) MTS SCHEME.
Info: C1 SPLITTING OF LONG RANGE ELECTROSTATICS
Info: PLACING ATOMS IN PATCHES BY HYDROGEN GROUPS
Info: RIGID BONDS TO HYDROGEN : ALL
Info:         ERROR TOLERANCE : 1e-08
Info:          MAX ITERATIONS : 100
Info: RIGID WATER USING SETTLE ALGORITHM
Info: RANDOM NUMBER SEED     1650463764
Info: USE HYDROGEN BONDS?    NO
Info: COORDINATE PDB         POCG_5.pdb
Info: STRUCTURE FILE         POCG_5.psf
Info: PARAMETER file: CHARMM format!
Info: PARAMETERS             ../../../../common/toppar/par_all36m_prot.prm
Info: PARAMETERS             ../../../../common/toppar/par_all36_na.prm
Info: PARAMETERS             ../../../../common/toppar/par_all36_carb.prm
Info: PARAMETERS             ../../../../common/toppar/par_all36_lipid.prm
Info: PARAMETERS             ../../../../common/toppar/par_all36_cgenff.prm
Info: PARAMETERS             ../../../../common/toppar/toppar_water_ions.str
Info: USING ARITHMETIC MEAN TO COMBINE L-J SIGMA PARAMETERS
Info: SUMMARY OF PARAMETERS:
Info: 1022 BONDS
Info: 3165 ANGLES
Info: 8214 DIHEDRAL
Info: 238 IMPROPER
Info: 6 CROSSTERM
Info: 362 VDW
Info: 99 VDW_PAIRS
Info: 0 NBTHOLE_PAIRS
Info: To read alchdata from file: POCG_5.fep.pdb
Info: To read alchflag data from column: 5
Info: STRUCTURE SUMMARY:
Info: 30878 ATOMS
Info: 25635 BONDS
Info: 34800 ANGLES
Info: 41319 DIHEDRALS
Info: 240 IMPROPERS
Info: 0 CROSSTERMS
Info: 0 EXCLUSIONS
Info: 24694 RIGID BONDS
Info: ALCH: 24 ATOMS TO DISAPPEAR IN FINAL STATE
Info: ALCH: 17 ATOMS TO APPEAR IN FINAL STATE
Info: ALCH: 1 ANGLES LINKING INITIAL AND FINAL ATOMS DELETED
Info: ALCH: 2 DIHEDRALS LINKING INITIAL AND FINAL ATOMS DELETED
Info: 67940 DEGREES OF FREEDOM
Info: 11253 HYDROGEN GROUPS
Info: 4 ATOMS IN LARGEST HYDROGEN GROUP
Info: 11253 MIGRATION GROUPS
Info: 4 ATOMS IN LARGEST MIGRATION GROUP
Info: TOTAL MASS = 183144 amu
Info: TOTAL CHARGE = -1.09999 e
Info: MASS DENSITY = 1.01432 g/cm^3
Info: ATOM DENSITY = 0.102984 atoms/A^3
Info: ADDED 101754 IMPLICIT EXCLUSIONS
Info: NONBONDED TABLE R-SQUARED SPACING: 0.0625
Info: NONBONDED TABLE SIZE: 769 POINTS
Info: REMOVING COM VELOCITY 0.0475891 0.0107932 0.0639797
Info: Use 3D box decompostion in PME FFT.
Info: Updated CUDA force table with 4096 elements.
Info: Updated CUDA LJ table with 362 x 362 elements.
Info: Found 107 unique exclusion lists needing 368 bytes
TCL: Minimizing for 1000 steps
ETITLE: TS BOND ANGLE DIHED IMPRP ELECT VDW BOUNDARY MISC KINETIC TOTAL TEMP POTENTIAL TOTAL3 TEMPAVG PRESSURE GPRESSURE VOLUME PRESSAVG GPRESSAVG
ENERGY: 0 1970.4755 9362.8156 6484.3309 67.8153 -65231.3634 68942047.8934 0.0000 0.0000 0.0000 68894701.9673 0.0000 68894701.9673 68894701.9673 0.0000 -112.7545 -348238.3772 299832.0000 -112.7545 -348238.3772
ENERGY: 200 1177.9500 7437.4649 6290.8652 84.8179 -73918.7234 4644.8849 0.0000 0.0000 0.0000 -54282.7404 0.0000 -54282.7404 -54282.7404 0.0000 -72.4325 -12692.5443 299832.0000 -72.4325 -12692.5443
ENERGY: 400 1235.4083 7207.4631 6200.6638 83.3206 -77237.1437 2736.8296 0.0000 0.0000 0.0000 -59773.4583 0.0000 -59773.4583 -59773.4583 0.0000 -64.2209 -13321.1148 299832.0000 -64.2209 -13321.1148
ENERGY: 600 889.2732 5953.5201 6129.8779 37.9964 -78139.2547 2226.5426 0.0000 0.0000 0.0000 -62902.0445 0.0000 -62902.0445 -62902.0445 0.0000 -62.1645 -13178.3525 299832.0000 -62.1645 -13178.3525
ENERGY: 800 812.4336 5573.6053 6095.0574 43.7014 -78342.0710 2151.0374 0.0000 0.0000 0.0000 -63666.2360 0.0000 -63666.2360 -63666.2360 0.0000 -62.3748 -13367.9294 299832.0000 -62.3748 -13367.9294
ENERGY: 1000 720.5820 5413.1091 6092.8009 39.2279 -78247.2821 2154.7483 0.0000 0.0000 0.0000 -63826.8139 0.0000 -63826.8139 -63826.8139 0.0000 -62.5816 -13325.8967 299832.0000 -62.5816 -13325.8967
TCL: Running for 250000 steps
ETITLE: TS BOND ANGLE DIHED IMPRP ELECT VDW BOUNDARY MISC KINETIC TOTAL TEMP POTENTIAL TOTAL3 TEMPAVG PRESSURE GPRESSURE VOLUME PRESSAVG GPRESSAVG
ENERGY: 10000 1648.5852 9286.7454 6362.3942 70.4995 -70723.5038 364.2719 0.0000 0.0000 20346.2421 -32644.7656 301.4040 -52991.0077 -32493.0461 289.5732 132.0960 136.2294 298343.4603 -0.3738 -0.3833
ENERGY: 60000 1748.1652 9349.7259 6384.9009 69.8960 -70647.0035 252.1573 0.0000 0.0000 20500.9214 -32341.2368 303.6954 -52842.1582 -32184.4996 302.0525 -7.4671 -16.6787 298651.9630 4.6598 4.6587
ENERGY: 110000 1708.7132 9273.0506 6424.1209 67.4044 -70750.9256 397.1127 0.0000 0.0000 20442.5622 -32437.9616 302.8309 -52880.5238 -32282.2659 302.5076 -72.0624 -56.6293 298455.5962 1.5706 1.5765
ENERGY: 150000 1698.3194 9252.0309 6365.1318 78.6470 -70697.5480 257.0432 0.0000 0.0000 20336.5568 -32709.8190 301.2606 -53046.3757 -32551.8847 302.0518 134.3490 141.3502 298352.4957 -3.5306 -3.5303
ENERGY: 200000 1721.7909 9340.6670 6339.0441 69.2991 -70788.5047 375.6126 0.0000 0.0000 20405.4101 -32536.6808 302.2805 -52942.0910 -32385.4724 302.4201 -64.8981 -53.5048 298564.7158 1.7805 1.7739
ENERGY: 250000 1686.4637 9288.3725 6326.1950 64.7795 -70648.4147 261.9138 0.0000 0.0000 20132.5159 -32888.1743 298.2379 -53020.6902 -32731.4053 301.8830 -9.7812 4.4661 298591.0345 1.6522 1.6259
