Info: SIMULATION PARAMETERS:
Info: TIMESTEP               2
Info: NUMBER OF STEPS        0
Info: STEPS PER CYCLE        20
Info: PERIODIC CELL BASIS 1  62 0 0
Info: PERIODIC CELL BASIS 2  0 62 0
Info: PERIODIC CELL BASIS 3  0 0 78
Info: PERIODIC CELL CENTER   0 0 0
Info: WRAPPING WATERS AROUND PERIODIC BOUNDARIES ON OUTPUT.
Info: WRAPPING ALL CLUSTERS AROUND PERIODIC BOUNDARIES ON OUTPUT.
Info: FIRST LDB TIMESTEP     100
Info: LAST LDB TIMESTEP     -1
Info: HOM BACKGROUND SCALING 1
Info: PME BACKGROUND SCALING 1
Info: MIN ATOMS PER PATCH    40
Info: INITIAL TEMPERATURE    303.15
Info: CENTER OF MASS MOVING INITIALLY? NO
Info: DIELECTRIC             1
Info: EXCLUDE                SCALED ONE-FOUR
Info: 1-4 ELECTROSTATICS SCALED BY 1
Info: MODIFIED 1-4 VDW PARAMETERS WILL BE USED
Info: DCD FILENAME           starting.POEG_18.dcd
Info: DCD FREQUENCY          10000
Info: DCD FIRST STEP         10000
Info: DCD FILE WILL CONTAIN UNIT CELL DATA
Info: XST FILENAME           starting.POEG_18.xst
Info: XST FREQUENCY          10000
Info: NO VELOCITY DCD OUTPUT
Info: NO FORCE DCD OUTPUT
Info: OUTPUT FILENAME        starting.POEG_18
Info: BINARY OUTPUT FILES WILL BE USED
Info: RESTART FILENAME       starting.POEG_18.restart
Info: RESTART FREQUENCY      10000
Info: BINARY RESTART FILES WILL BE USED
Info: SWITCHING ACTIVE
Info: VDW FORCE SWITCHING ACTIVE
Info: SWITCHING ON           10
Info: SWITCHING OFF          12
Info: PAIRLIST DISTANCE      16
Info: PAIRLIST SHRINK RATE   0.01
Info: PAIRLIST GROW RATE     0.01
Info: PAIRLIST TRIGGER       0.3
Info: PAIRLISTS PER CYCLE    2
Info: PAIRLISTS ENABLED
Info: MARGIN                 1.11
Info: HYDROGEN GROUP CUTOFF  2.5
Info: PATCH DIMENSION        19.61
Info: ENERGY OUTPUT STEPS    10000
Info: ENERGY EVALUATION STEPS    10000
Info: CROSSTERM ENERGY INCLUDED IN DIHEDRAL
Info: TIMING OUTPUT STEPS    10000
Info: ALCHEMICAL FEP ON
Info: FEP CURRENT LAMBDA VALUE     0
Info: FEP COMPARISON LAMBDA VALUE  0
Info: FEP INTRA-ALCHEMICAL NON-BONDED INTERACTIONS WILL BE RETAINED
Info: FEP INTRA-ALCHEMICAL BONDED INTERACTIONS WILL BE RETAINED
Info: FEP VDW SHIFTING COEFFICIENT 6
Info: FEP ELEC. ACTIVE FOR ANNIHILATED PARTICLES BETWEEN LAMBDA = 0 AND LAMBDA = 0.75
Info: FEP ELEC. ACTIVE FOR EXNIHILATED PARTICLES BETWEEN LAMBDA = 0.25 AND LAMBDA = 1
Info: FEP VDW ACTIVE FOR ANNIHILATED PARTICLES BETWEEN LAMBDA = 0.5 AND LAMBDA = 1
Info: FEP VDW ACTIVE FOR EXNIHILATED PARTICLES BETWEEN LAMBDA = 0 AND LAMBDA = 0.5
Info: FEP BOND ACTIVE FOR ANNIHILATED PARTICLES BETWEEN LAMBDA = 1 AND LAMBDA = 1
Info: FEP BOND ACTIVE FOR EXNIHILATED PARTICLES BETWEEN LAMBDA = 0 AND LAMBDA = 0
Info: COLLECTIVE VARIABLES CALCULATION REQUESTED
Info: COLLECTIVE VARIABLES CONFIGURATION   restraints/starting.POEG_18.col
Info: LANGEVIN DYNAMICS ACTIVE
Info: LANGEVIN TEMPERATURE   303.15
Info: LANGEVIN USING BBK INTEGRATOR
Info: LANGEVIN DAMPING COEFFICIENT IS 1 INVERSE PS
Info: LANGEVIN DYNAMICS NOT APPLIED TO HYDROGENS
Info: LANGEVIN PISTON PRESSURE CONTROL ACTIVE
Info:        TARGET PRESSURE IS 1.01325 BAR
Info:     OSCILLATION PERIOD IS 200 FS
Info:             DECAY TIME IS 100 FS
Info:     PISTON TEMPERATURE IS 303.15 K
Info:       PRESSURE CONTROL IS GROUP-BASED
Info:    INITIAL STRAIN RATE IS 0 0 0
Info:       CELL FLUCTUATION IS ANISOTROPIC
Info:     SHAPE OF CELL IS CONSTRAINED IN X-Y PLANE
Info: PARTICLE MESH EWALD (PME) ACTIVE
Info: PME TOLERANCE               1e-06
Info: PME EWALD COEFFICIENT       0.257952
Info: PME INTERPOLATION ORDER     6
Info: PME GRID DIMENSIONS         64 64 80
Info: PME MAXIMUM GRID SPACING    1
Info: PME RECIPROCAL SUM OFFLOADED TO GPU
Info: FULL ELECTROSTATIC EVALUATION FREQUENCY      2
Info: USING VERLET I (r-RESPA) MTS SCHEME.
Info: C1 SPLITTING OF LONG RANGE ELECTROSTATICS
Info: PLACING ATOMS IN PATCHES BY HYDROGEN GROUPS
Info: RIGID BONDS TO HYDROGEN : ALL
Info:         ERROR TOLERANCE : 1e-08
Info:          MAX ITERATIONS : 100
Info: RIGID WATER USING SETTLE ALGORITHM
Info: RANDOM NUMBER SEED     1650473011
Info: USE HYDROGEN BONDS?    NO
Info: COORDINATE PDB         POEG_18.pdb
Info: STRUCTURE FILE         POEG_18.psf
Info: PARAMETER file: CHARMM format!
Info: PARAMETERS             ../../../../common/toppar/par_all36m_prot.prm
Info: PARAMETERS             ../../../../common/toppar/par_all36_na.prm
Info: PARAMETERS             ../../../../common/toppar/par_all36_carb.prm
Info: PARAMETERS             ../../../../common/toppar/par_all36_lipid.prm
Info: PARAMETERS             ../../../../common/toppar/par_all36_cgenff.prm
Info: PARAMETERS             ../../../../common/toppar/toppar_water_ions.str
Info: USING ARITHMETIC MEAN TO COMBINE L-J SIGMA PARAMETERS
Info: SUMMARY OF PARAMETERS:
Info: 1022 BONDS
Info: 3165 ANGLES
Info: 8214 DIHEDRAL
Info: 238 IMPROPER
Info: 6 CROSSTERM
Info: 362 VDW
Info: 99 VDW_PAIRS
Info: 0 NBTHOLE_PAIRS
Info: To read alchdata from file: POEG_18.fep.pdb
Info: To read alchflag data from column: 5
Info: STRUCTURE SUMMARY:
Info: 30878 ATOMS
Info: 25635 BONDS
Info: 34800 ANGLES
Info: 41319 DIHEDRALS
Info: 240 IMPROPERS
Info: 0 CROSSTERMS
Info: 0 EXCLUSIONS
Info: 24694 RIGID BONDS
Info: ALCH: 11 ATOMS TO DISAPPEAR IN FINAL STATE
Info: ALCH: 17 ATOMS TO APPEAR IN FINAL STATE
Info: ALCH: 1 ANGLES LINKING INITIAL AND FINAL ATOMS DELETED
Info: ALCH: 2 DIHEDRALS LINKING INITIAL AND FINAL ATOMS DELETED
Info: 67940 DEGREES OF FREEDOM
Info: 11253 HYDROGEN GROUPS
Info: 4 ATOMS IN LARGEST HYDROGEN GROUP
Info: 11253 MIGRATION GROUPS
Info: 4 ATOMS IN LARGEST MIGRATION GROUP
Info: TOTAL MASS = 183144 amu
Info: TOTAL CHARGE = -1.09999 e
Info: MASS DENSITY = 1.01432 g/cm^3
Info: ATOM DENSITY = 0.102984 atoms/A^3
Info: ADDED 101754 IMPLICIT EXCLUSIONS
Info: NONBONDED TABLE R-SQUARED SPACING: 0.0625
Info: NONBONDED TABLE SIZE: 769 POINTS
Info: REMOVING COM VELOCITY -0.0337167 -0.0682928 -0.00328643
Info: Use 3D box decompostion in PME FFT.
Info: Updated CUDA force table with 4096 elements.
Info: Updated CUDA LJ table with 362 x 362 elements.
Info: Found 107 unique exclusion lists needing 352 bytes
TCL: Minimizing for 1000 steps
ETITLE: TS BOND ANGLE DIHED IMPRP ELECT VDW BOUNDARY MISC KINETIC TOTAL TEMP POTENTIAL TOTAL3 TEMPAVG PRESSURE GPRESSURE VOLUME PRESSAVG GPRESSAVG
ENERGY: 0 1657.7244 9268.9222 6482.6912 67.8153 -65235.5751 68942057.1220 0.0000 0.0000 0.0000 68894298.7000 0.0000 68894298.7000 68894298.7000 0.0000 -112.8258 -348241.5302 299832.0000 -112.8258 -348241.5302
ENERGY: 200 662.5543 6804.2114 6299.4059 56.7627 -71631.7156 6282.4201 0.0000 0.0000 0.0000 -51526.3611 0.0000 -51526.3611 -51526.3611 0.0000 -80.1076 -12093.5429 299832.0000 -80.1076 -12093.5429
ENERGY: 400 1028.1317 6170.7047 6192.7093 60.7164 -75747.4482 3618.2452 0.0000 0.0000 0.0000 -58676.9410 0.0000 -58676.9410 -58676.9410 0.0000 -67.2384 -12899.1790 299832.0000 -67.2384 -12899.1790
ENERGY: 600 1031.9711 6174.4890 6192.7736 60.8995 -75748.2957 3617.0319 0.0000 0.0000 0.0000 -58671.1306 0.0000 -58671.1306 -58671.1306 0.0000 -67.2422 -12900.0129 299832.0000 -67.2422 -12900.0129
ENERGY: 800 1035.7936 6178.1629 6192.8370 61.0804 -75748.9270 3615.8172 0.0000 0.0000 0.0000 -58665.2360 0.0000 -58665.2360 -58665.2360 0.0000 -67.2468 -12900.7476 299832.0000 -67.2468 -12900.7476
ENERGY: 1000 866.0541 5915.8779 6188.3831 52.7935 -75599.7728 3648.4752 0.0000 0.0000 0.0000 -58928.1890 0.0000 -58928.1890 -58928.1890 0.0000 -67.3553 -12792.8516 299832.0000 -67.3553 -12792.8516
TCL: Running for 250000 steps
ETITLE: TS BOND ANGLE DIHED IMPRP ELECT VDW BOUNDARY MISC KINETIC TOTAL TEMP POTENTIAL TOTAL3 TEMPAVG PRESSURE GPRESSURE VOLUME PRESSAVG GPRESSAVG
ENERGY: 10000 1633.3755 9211.5428 6371.4269 65.1636 -70921.1819 362.1361 0.0000 0.0000 20421.6156 -32855.9213 302.5206 -53277.5369 -32698.8424 294.8368 646.4100 662.1644 299164.3967 5.0224 5.0544
ENERGY: 60000 1676.4351 9331.8500 6370.7008 59.7582 -70513.4719 233.4348 0.0000 0.0000 20448.1174 -32393.1756 302.9132 -52841.2930 -32245.0615 302.3895 -127.9133 -99.4815 298892.8186 -0.1347 -0.1637
ENERGY: 110000 1691.5638 9300.6900 6402.6714 73.0571 -70927.9112 535.6075 0.0000 0.0000 20267.8205 -32656.5008 300.2423 -52924.3213 -32498.1268 301.9647 234.8693 251.5103 299928.3143 2.0449 1.9777
ENERGY: 150000 1633.6007 9341.6308 6473.4530 63.1115 -70636.3104 304.6099 0.0000 0.0000 20548.6484 -32271.2561 304.4024 -52819.9045 -32114.9718 302.2210 93.9840 108.4788 298293.0370 1.7713 1.8276
ENERGY: 200000 1780.2984 9264.6218 6453.2851 67.4065 -70478.7953 -18.5387 0.0000 0.0000 20337.3115 -32594.4107 301.2717 -52931.7222 -32437.9937 302.8014 -363.0857 -349.7080 298565.0583 1.1858 1.2051
ENERGY: 250000 1681.1719 9241.7183 6435.2539 75.6033 -70973.0326 417.5155 0.0000 0.0000 20489.0486 -32632.7210 303.5195 -53121.7697 -32479.4143 302.0802 -173.5334 -162.8285 299071.2916 -1.9582 -1.9582
