Info: SIMULATION PARAMETERS:
Info: TIMESTEP               2
Info: NUMBER OF STEPS        0
Info: STEPS PER CYCLE        20
Info: PERIODIC CELL BASIS 1  62 0 0
Info: PERIODIC CELL BASIS 2  0 62 0
Info: PERIODIC CELL BASIS 3  0 0 78
Info: PERIODIC CELL CENTER   0 0 0
Info: WRAPPING WATERS AROUND PERIODIC BOUNDARIES ON OUTPUT.
Info: WRAPPING ALL CLUSTERS AROUND PERIODIC BOUNDARIES ON OUTPUT.
Info: FIRST LDB TIMESTEP     100
Info: LAST LDB TIMESTEP     -1
Info: HOM BACKGROUND SCALING 1
Info: PME BACKGROUND SCALING 1
Info: MIN ATOMS PER PATCH    40
Info: INITIAL TEMPERATURE    303.15
Info: CENTER OF MASS MOVING INITIALLY? NO
Info: DIELECTRIC             1
Info: EXCLUDE                SCALED ONE-FOUR
Info: 1-4 ELECTROSTATICS SCALED BY 1
Info: MODIFIED 1-4 VDW PARAMETERS WILL BE USED
Info: DCD FILENAME           starting.POCE_9.dcd
Info: DCD FREQUENCY          10000
Info: DCD FIRST STEP         10000
Info: DCD FILE WILL CONTAIN UNIT CELL DATA
Info: XST FILENAME           starting.POCE_9.xst
Info: XST FREQUENCY          10000
Info: NO VELOCITY DCD OUTPUT
Info: NO FORCE DCD OUTPUT
Info: OUTPUT FILENAME        starting.POCE_9
Info: BINARY OUTPUT FILES WILL BE USED
Info: RESTART FILENAME       starting.POCE_9.restart
Info: RESTART FREQUENCY      10000
Info: BINARY RESTART FILES WILL BE USED
Info: SWITCHING ACTIVE
Info: VDW FORCE SWITCHING ACTIVE
Info: SWITCHING ON           10
Info: SWITCHING OFF          12
Info: PAIRLIST DISTANCE      16
Info: PAIRLIST SHRINK RATE   0.01
Info: PAIRLIST GROW RATE     0.01
Info: PAIRLIST TRIGGER       0.3
Info: PAIRLISTS PER CYCLE    2
Info: PAIRLISTS ENABLED
Info: MARGIN                 1.11
Info: HYDROGEN GROUP CUTOFF  2.5
Info: PATCH DIMENSION        19.61
Info: ENERGY OUTPUT STEPS    10000
Info: ENERGY EVALUATION STEPS    10000
Info: CROSSTERM ENERGY INCLUDED IN DIHEDRAL
Info: TIMING OUTPUT STEPS    10000
Info: ALCHEMICAL FEP ON
Info: FEP CURRENT LAMBDA VALUE     0
Info: FEP COMPARISON LAMBDA VALUE  0
Info: FEP INTRA-ALCHEMICAL NON-BONDED INTERACTIONS WILL BE RETAINED
Info: FEP INTRA-ALCHEMICAL BONDED INTERACTIONS WILL BE RETAINED
Info: FEP VDW SHIFTING COEFFICIENT 6
Info: FEP ELEC. ACTIVE FOR ANNIHILATED PARTICLES BETWEEN LAMBDA = 0 AND LAMBDA = 0.75
Info: FEP ELEC. ACTIVE FOR EXNIHILATED PARTICLES BETWEEN LAMBDA = 0.25 AND LAMBDA = 1
Info: FEP VDW ACTIVE FOR ANNIHILATED PARTICLES BETWEEN LAMBDA = 0.5 AND LAMBDA = 1
Info: FEP VDW ACTIVE FOR EXNIHILATED PARTICLES BETWEEN LAMBDA = 0 AND LAMBDA = 0.5
Info: FEP BOND ACTIVE FOR ANNIHILATED PARTICLES BETWEEN LAMBDA = 1 AND LAMBDA = 1
Info: FEP BOND ACTIVE FOR EXNIHILATED PARTICLES BETWEEN LAMBDA = 0 AND LAMBDA = 0
Info: COLLECTIVE VARIABLES CALCULATION REQUESTED
Info: COLLECTIVE VARIABLES CONFIGURATION   restraints/starting.POCE_9.col
Info: LANGEVIN DYNAMICS ACTIVE
Info: LANGEVIN TEMPERATURE   303.15
Info: LANGEVIN USING BBK INTEGRATOR
Info: LANGEVIN DAMPING COEFFICIENT IS 1 INVERSE PS
Info: LANGEVIN DYNAMICS NOT APPLIED TO HYDROGENS
Info: LANGEVIN PISTON PRESSURE CONTROL ACTIVE
Info:        TARGET PRESSURE IS 1.01325 BAR
Info:     OSCILLATION PERIOD IS 200 FS
Info:             DECAY TIME IS 100 FS
Info:     PISTON TEMPERATURE IS 303.15 K
Info:       PRESSURE CONTROL IS GROUP-BASED
Info:    INITIAL STRAIN RATE IS 0 0 0
Info:       CELL FLUCTUATION IS ANISOTROPIC
Info:     SHAPE OF CELL IS CONSTRAINED IN X-Y PLANE
Info: PARTICLE MESH EWALD (PME) ACTIVE
Info: PME TOLERANCE               1e-06
Info: PME EWALD COEFFICIENT       0.257952
Info: PME INTERPOLATION ORDER     6
Info: PME GRID DIMENSIONS         64 64 80
Info: PME MAXIMUM GRID SPACING    1
Info: PME RECIPROCAL SUM OFFLOADED TO GPU
Info: FULL ELECTROSTATIC EVALUATION FREQUENCY      2
Info: USING VERLET I (r-RESPA) MTS SCHEME.
Info: C1 SPLITTING OF LONG RANGE ELECTROSTATICS
Info: PLACING ATOMS IN PATCHES BY HYDROGEN GROUPS
Info: RIGID BONDS TO HYDROGEN : ALL
Info:         ERROR TOLERANCE : 1e-08
Info:          MAX ITERATIONS : 100
Info: RIGID WATER USING SETTLE ALGORITHM
Info: RANDOM NUMBER SEED     1650467112
Info: USE HYDROGEN BONDS?    NO
Info: COORDINATE PDB         POCE_9.pdb
Info: STRUCTURE FILE         POCE_9.psf
Info: PARAMETER file: CHARMM format!
Info: PARAMETERS             ../../../../common/toppar/par_all36m_prot.prm
Info: PARAMETERS             ../../../../common/toppar/par_all36_na.prm
Info: PARAMETERS             ../../../../common/toppar/par_all36_carb.prm
Info: PARAMETERS             ../../../../common/toppar/par_all36_lipid.prm
Info: PARAMETERS             ../../../../common/toppar/par_all36_cgenff.prm
Info: PARAMETERS             ../../../../common/toppar/toppar_water_ions.str
Info: USING ARITHMETIC MEAN TO COMBINE L-J SIGMA PARAMETERS
Info: SUMMARY OF PARAMETERS:
Info: 1022 BONDS
Info: 3165 ANGLES
Info: 8214 DIHEDRAL
Info: 238 IMPROPER
Info: 6 CROSSTERM
Info: 362 VDW
Info: 99 VDW_PAIRS
Info: 0 NBTHOLE_PAIRS
Info: To read alchdata from file: POCE_9.fep.pdb
Info: To read alchflag data from column: 5
Info: STRUCTURE SUMMARY:
Info: 30876 ATOMS
Info: 25633 BONDS
Info: 34798 ANGLES
Info: 41313 DIHEDRALS
Info: 240 IMPROPERS
Info: 0 CROSSTERMS
Info: 0 EXCLUSIONS
Info: 24694 RIGID BONDS
Info: ALCH: 24 ATOMS TO DISAPPEAR IN FINAL STATE
Info: ALCH: 15 ATOMS TO APPEAR IN FINAL STATE
Info: ALCH: 1 ANGLES LINKING INITIAL AND FINAL ATOMS DELETED
Info: ALCH: 2 DIHEDRALS LINKING INITIAL AND FINAL ATOMS DELETED
Info: 67934 DEGREES OF FREEDOM
Info: 11251 HYDROGEN GROUPS
Info: 4 ATOMS IN LARGEST HYDROGEN GROUP
Info: 11251 MIGRATION GROUPS
Info: 4 ATOMS IN LARGEST MIGRATION GROUP
Info: TOTAL MASS = 183114 amu
Info: TOTAL CHARGE = -0.0999913 e
Info: MASS DENSITY = 1.01415 g/cm^3
Info: ATOM DENSITY = 0.102978 atoms/A^3
Info: ADDED 101744 IMPLICIT EXCLUSIONS
Info: NONBONDED TABLE R-SQUARED SPACING: 0.0625
Info: NONBONDED TABLE SIZE: 769 POINTS
Info: REMOVING COM VELOCITY 0.033654 0.0178675 -0.0540948
Info: Use 3D box decompostion in PME FFT.
Info: Updated CUDA force table with 4096 elements.
Info: Updated CUDA LJ table with 362 x 362 elements.
Info: Found 99 unique exclusion lists needing 324 bytes
TCL: Minimizing for 1000 steps
ETITLE: TS BOND ANGLE DIHED IMPRP ELECT VDW BOUNDARY MISC KINETIC TOTAL TEMP POTENTIAL TOTAL3 TEMPAVG PRESSURE GPRESSURE VOLUME PRESSAVG GPRESSAVG
ENERGY: 0 1658.0844 9271.2064 6487.1117 67.8153 -65310.6322 68942049.4667 0.0000 0.0000 0.0000 68894223.0523 0.0000 68894223.0523 68894223.0523 0.0000 -114.5737 -348239.1686 299832.0000 -114.5737 -348239.1686
ENERGY: 200 662.4229 6820.6664 6304.2475 57.3513 -71714.6079 6286.6109 0.0000 0.0000 0.0000 -51583.3089 0.0000 -51583.3089 -51583.3089 0.0000 -81.7919 -12094.5229 299832.0000 -81.7919 -12094.5229
ENERGY: 400 1412.4476 7307.8637 6211.2095 87.6350 -77115.0119 2958.9274 0.0000 0.0000 0.0000 -59136.9287 0.0000 -59136.9287 -59136.9287 0.0000 -66.3415 -13304.2105 299832.0000 -66.3415 -13304.2105
ENERGY: 600 1109.2386 7191.3900 6207.5399 82.3974 -77207.2415 2854.8353 0.0000 0.0000 0.0000 -59761.8403 0.0000 -59761.8403 -59761.8403 0.0000 -66.0828 -13298.6752 299832.0000 -66.0828 -13298.6752
ENERGY: 800 1109.8050 7190.6662 6207.5154 82.3972 -77207.4728 2854.6462 0.0000 0.0000 0.0000 -59762.4428 0.0000 -59762.4428 -59762.4428 0.0000 -66.0821 -13298.2644 299832.0000 -66.0821 -13298.2644
ENERGY: 1000 1084.8390 7154.6050 6206.8759 81.2735 -77190.8395 2856.2701 0.0000 0.0000 0.0000 -59806.9760 0.0000 -59806.9760 -59806.9760 0.0000 -66.0996 -13288.0230 299832.0000 -66.0996 -13288.0230
TCL: Running for 250000 steps
ETITLE: TS BOND ANGLE DIHED IMPRP ELECT VDW BOUNDARY MISC KINETIC TOTAL TEMP POTENTIAL TOTAL3 TEMPAVG PRESSURE GPRESSURE VOLUME PRESSAVG GPRESSAVG
ENERGY: 10000 1684.5115 9241.9020 6463.4462 63.7280 -70889.5093 229.0288 0.0000 0.0000 20389.8033 -32817.0895 302.0760 -53206.8928 -32662.2262 293.1943 2.6495 20.4537 297666.5051 2.1121 2.0892
ENERGY: 60000 1714.1639 9229.2388 6368.4411 71.7655 -70876.6407 258.9249 0.0000 0.0000 20285.0580 -32949.0485 300.5242 -53234.1065 -32799.7008 303.2069 -261.1198 -248.5084 296834.6043 0.9172 0.9417
ENERGY: 110000 1711.0655 9250.7987 6464.5840 81.3665 -71038.6135 428.2375 0.0000 0.0000 20300.8195 -32801.7419 300.7577 -53102.5614 -32644.0040 301.5671 -33.8292 -4.6070 298840.9118 5.5775 5.5092
ENERGY: 150000 1659.8447 9178.7012 6455.1874 63.8749 -71145.6907 534.5095 0.0000 0.0000 20384.3673 -32869.2057 301.9955 -53253.5730 -32716.2303 302.4144 90.5545 106.2336 298408.3730 0.2760 0.3053
ENERGY: 200000 1706.4392 9167.6212 6411.8429 66.9313 -70728.4488 354.8944 0.0000 0.0000 20250.6410 -32770.0789 300.0143 -53020.7199 -32619.9228 302.4975 252.7414 269.7210 298458.0336 0.0792 0.0633
ENERGY: 250000 1693.1484 9247.4480 6407.1173 71.8650 -70944.5062 363.5168 0.0000 0.0000 20307.6215 -32853.7893 300.8585 -53161.4108 -32693.0248 302.0713 -126.5447 -110.7730 298015.9952 -1.6926 -1.6810
