Info: SIMULATION PARAMETERS:
Info: TIMESTEP               2
Info: NUMBER OF STEPS        0
Info: STEPS PER CYCLE        20
Info: PERIODIC CELL BASIS 1  62 0 0
Info: PERIODIC CELL BASIS 2  0 62 0
Info: PERIODIC CELL BASIS 3  0 0 78
Info: PERIODIC CELL CENTER   0 0 0
Info: WRAPPING WATERS AROUND PERIODIC BOUNDARIES ON OUTPUT.
Info: WRAPPING ALL CLUSTERS AROUND PERIODIC BOUNDARIES ON OUTPUT.
Info: FIRST LDB TIMESTEP     100
Info: LAST LDB TIMESTEP     -1
Info: HOM BACKGROUND SCALING 1
Info: PME BACKGROUND SCALING 1
Info: MIN ATOMS PER PATCH    40
Info: INITIAL TEMPERATURE    303.15
Info: CENTER OF MASS MOVING INITIALLY? NO
Info: DIELECTRIC             1
Info: EXCLUDE                SCALED ONE-FOUR
Info: 1-4 ELECTROSTATICS SCALED BY 1
Info: MODIFIED 1-4 VDW PARAMETERS WILL BE USED
Info: DCD FILENAME           starting.POCG_22.dcd
Info: DCD FREQUENCY          10000
Info: DCD FIRST STEP         10000
Info: DCD FILE WILL CONTAIN UNIT CELL DATA
Info: XST FILENAME           starting.POCG_22.xst
Info: XST FREQUENCY          10000
Info: NO VELOCITY DCD OUTPUT
Info: NO FORCE DCD OUTPUT
Info: OUTPUT FILENAME        starting.POCG_22
Info: BINARY OUTPUT FILES WILL BE USED
Info: RESTART FILENAME       starting.POCG_22.restart
Info: RESTART FREQUENCY      10000
Info: BINARY RESTART FILES WILL BE USED
Info: SWITCHING ACTIVE
Info: VDW FORCE SWITCHING ACTIVE
Info: SWITCHING ON           10
Info: SWITCHING OFF          12
Info: PAIRLIST DISTANCE      16
Info: PAIRLIST SHRINK RATE   0.01
Info: PAIRLIST GROW RATE     0.01
Info: PAIRLIST TRIGGER       0.3
Info: PAIRLISTS PER CYCLE    2
Info: PAIRLISTS ENABLED
Info: MARGIN                 1.11
Info: HYDROGEN GROUP CUTOFF  2.5
Info: PATCH DIMENSION        19.61
Info: ENERGY OUTPUT STEPS    10000
Info: ENERGY EVALUATION STEPS    10000
Info: CROSSTERM ENERGY INCLUDED IN DIHEDRAL
Info: TIMING OUTPUT STEPS    10000
Info: ALCHEMICAL FEP ON
Info: FEP CURRENT LAMBDA VALUE     0
Info: FEP COMPARISON LAMBDA VALUE  0
Info: FEP INTRA-ALCHEMICAL NON-BONDED INTERACTIONS WILL BE RETAINED
Info: FEP INTRA-ALCHEMICAL BONDED INTERACTIONS WILL BE RETAINED
Info: FEP VDW SHIFTING COEFFICIENT 6
Info: FEP ELEC. ACTIVE FOR ANNIHILATED PARTICLES BETWEEN LAMBDA = 0 AND LAMBDA = 0.75
Info: FEP ELEC. ACTIVE FOR EXNIHILATED PARTICLES BETWEEN LAMBDA = 0.25 AND LAMBDA = 1
Info: FEP VDW ACTIVE FOR ANNIHILATED PARTICLES BETWEEN LAMBDA = 0.5 AND LAMBDA = 1
Info: FEP VDW ACTIVE FOR EXNIHILATED PARTICLES BETWEEN LAMBDA = 0 AND LAMBDA = 0.5
Info: FEP BOND ACTIVE FOR ANNIHILATED PARTICLES BETWEEN LAMBDA = 1 AND LAMBDA = 1
Info: FEP BOND ACTIVE FOR EXNIHILATED PARTICLES BETWEEN LAMBDA = 0 AND LAMBDA = 0
Info: COLLECTIVE VARIABLES CALCULATION REQUESTED
Info: COLLECTIVE VARIABLES CONFIGURATION   restraints/starting.POCG_22.col
Info: LANGEVIN DYNAMICS ACTIVE
Info: LANGEVIN TEMPERATURE   303.15
Info: LANGEVIN USING BBK INTEGRATOR
Info: LANGEVIN DAMPING COEFFICIENT IS 1 INVERSE PS
Info: LANGEVIN DYNAMICS NOT APPLIED TO HYDROGENS
Info: LANGEVIN PISTON PRESSURE CONTROL ACTIVE
Info:        TARGET PRESSURE IS 1.01325 BAR
Info:     OSCILLATION PERIOD IS 200 FS
Info:             DECAY TIME IS 100 FS
Info:     PISTON TEMPERATURE IS 303.15 K
Info:       PRESSURE CONTROL IS GROUP-BASED
Info:    INITIAL STRAIN RATE IS 0 0 0
Info:       CELL FLUCTUATION IS ANISOTROPIC
Info:     SHAPE OF CELL IS CONSTRAINED IN X-Y PLANE
Info: PARTICLE MESH EWALD (PME) ACTIVE
Info: PME TOLERANCE               1e-06
Info: PME EWALD COEFFICIENT       0.257952
Info: PME INTERPOLATION ORDER     6
Info: PME GRID DIMENSIONS         64 64 80
Info: PME MAXIMUM GRID SPACING    1
Info: PME RECIPROCAL SUM OFFLOADED TO GPU
Info: FULL ELECTROSTATIC EVALUATION FREQUENCY      2
Info: USING VERLET I (r-RESPA) MTS SCHEME.
Info: C1 SPLITTING OF LONG RANGE ELECTROSTATICS
Info: PLACING ATOMS IN PATCHES BY HYDROGEN GROUPS
Info: RIGID BONDS TO HYDROGEN : ALL
Info:         ERROR TOLERANCE : 1e-08
Info:          MAX ITERATIONS : 100
Info: RIGID WATER USING SETTLE ALGORITHM
Info: RANDOM NUMBER SEED     1650476322
Info: USE HYDROGEN BONDS?    NO
Info: COORDINATE PDB         POCG_22.pdb
Info: STRUCTURE FILE         POCG_22.psf
Info: PARAMETER file: CHARMM format!
Info: PARAMETERS             ../../../../common/toppar/par_all36m_prot.prm
Info: PARAMETERS             ../../../../common/toppar/par_all36_na.prm
Info: PARAMETERS             ../../../../common/toppar/par_all36_carb.prm
Info: PARAMETERS             ../../../../common/toppar/par_all36_lipid.prm
Info: PARAMETERS             ../../../../common/toppar/par_all36_cgenff.prm
Info: PARAMETERS             ../../../../common/toppar/toppar_water_ions.str
Info: USING ARITHMETIC MEAN TO COMBINE L-J SIGMA PARAMETERS
Info: SUMMARY OF PARAMETERS:
Info: 1022 BONDS
Info: 3165 ANGLES
Info: 8214 DIHEDRAL
Info: 238 IMPROPER
Info: 6 CROSSTERM
Info: 362 VDW
Info: 99 VDW_PAIRS
Info: 0 NBTHOLE_PAIRS
Info: To read alchdata from file: POCG_22.fep.pdb
Info: To read alchflag data from column: 5
Info: STRUCTURE SUMMARY:
Info: 30878 ATOMS
Info: 25635 BONDS
Info: 34800 ANGLES
Info: 41319 DIHEDRALS
Info: 240 IMPROPERS
Info: 0 CROSSTERMS
Info: 0 EXCLUSIONS
Info: 24694 RIGID BONDS
Info: ALCH: 24 ATOMS TO DISAPPEAR IN FINAL STATE
Info: ALCH: 17 ATOMS TO APPEAR IN FINAL STATE
Info: ALCH: 1 ANGLES LINKING INITIAL AND FINAL ATOMS DELETED
Info: ALCH: 2 DIHEDRALS LINKING INITIAL AND FINAL ATOMS DELETED
Info: 67940 DEGREES OF FREEDOM
Info: 11253 HYDROGEN GROUPS
Info: 4 ATOMS IN LARGEST HYDROGEN GROUP
Info: 11253 MIGRATION GROUPS
Info: 4 ATOMS IN LARGEST MIGRATION GROUP
Info: TOTAL MASS = 183144 amu
Info: TOTAL CHARGE = -1.09999 e
Info: MASS DENSITY = 1.01432 g/cm^3
Info: ATOM DENSITY = 0.102984 atoms/A^3
Info: ADDED 101754 IMPLICIT EXCLUSIONS
Info: NONBONDED TABLE R-SQUARED SPACING: 0.0625
Info: NONBONDED TABLE SIZE: 769 POINTS
Info: REMOVING COM VELOCITY -0.00501014 -0.00913645 -0.0689635
Info: Use 3D box decompostion in PME FFT.
Info: Updated CUDA force table with 4096 elements.
Info: Updated CUDA LJ table with 362 x 362 elements.
Info: Found 107 unique exclusion lists needing 368 bytes
TCL: Minimizing for 1000 steps
ETITLE: TS BOND ANGLE DIHED IMPRP ELECT VDW BOUNDARY MISC KINETIC TOTAL TEMP POTENTIAL TOTAL3 TEMPAVG PRESSURE GPRESSURE VOLUME PRESSAVG GPRESSAVG
ENERGY: 0 2006.6983 9371.4908 6484.4736 67.8153 -65231.4660 68942048.8300 0.0000 0.0000 0.0000 68894747.8419 0.0000 68894747.8419 68894747.8419 0.0000 -112.7635 -348238.2587 299832.0000 -112.7635 -348238.2587
ENERGY: 200 1504.7866 7775.2903 6295.7891 96.1115 -74170.4110 4568.8263 0.0000 0.0000 0.0000 -53929.6071 0.0000 -53929.6071 -53929.6071 0.0000 -72.0055 -12817.4273 299832.0000 -72.0055 -12817.4273
ENERGY: 400 1429.4772 6830.4304 6198.9938 78.0308 -76682.3707 3075.2873 0.0000 0.0000 0.0000 -59070.1512 0.0000 -59070.1512 -59070.1512 0.0000 -65.4208 -13210.7788 299832.0000 -65.4208 -13210.7788
ENERGY: 600 996.1908 6238.3166 6154.4742 60.0658 -77380.1886 2651.3816 0.0000 0.0000 0.0000 -61279.7596 0.0000 -61279.7596 -61279.7596 0.0000 -63.8811 -13241.1655 299832.0000 -63.8811 -13241.1655
ENERGY: 800 996.4088 6237.2525 6154.4730 60.0843 -77379.4469 2651.2019 0.0000 0.0000 0.0000 -61280.0264 0.0000 -61280.0264 -61280.0264 0.0000 -63.8805 -13240.0097 299832.0000 -63.8805 -13240.0097
ENERGY: 1000 969.9554 6198.4055 6153.8095 59.0478 -77361.9263 2653.4527 0.0000 0.0000 0.0000 -61327.2554 0.0000 -61327.2554 -61327.2554 0.0000 -63.8966 -13227.5735 299832.0000 -63.8966 -13227.5735
TCL: Running for 250000 steps
ETITLE: TS BOND ANGLE DIHED IMPRP ELECT VDW BOUNDARY MISC KINETIC TOTAL TEMP POTENTIAL TOTAL3 TEMPAVG PRESSURE GPRESSURE VOLUME PRESSAVG GPRESSAVG
ENERGY: 10000 1689.7304 9289.9584 6385.7045 69.1333 -70687.9808 212.5907 0.0000 0.0000 20337.4023 -32703.4613 301.2731 -53040.8635 -32548.7118 292.1457 -28.9927 -4.1137 298005.8378 1.7812 1.7966
ENERGY: 60000 1708.5904 9311.3616 6460.6114 70.3298 -70734.6875 33.9643 0.0000 0.0000 20209.6287 -32940.2012 299.3803 -53149.8299 -32781.6855 302.0812 -429.1542 -417.4989 296799.0269 1.9752 1.9661
ENERGY: 110000 1618.7162 9310.8634 6387.8226 80.1736 -70930.9995 372.6820 0.0000 0.0000 20422.1351 -32738.6065 302.5283 -53160.7416 -32587.1642 301.7335 -37.3772 -38.0023 298300.3168 1.0452 1.0327
ENERGY: 150000 1665.3485 9404.7567 6414.8971 72.8023 -70714.3595 168.8128 0.0000 0.0000 20429.2788 -32558.4632 302.6341 -52987.7420 -32401.5568 302.1377 -5.0601 25.9280 297827.6300 2.3900 2.4220
ENERGY: 200000 1664.1719 9335.9417 6417.3026 70.0788 -70760.9699 267.3315 0.0000 0.0000 20575.6200 -32430.5233 304.8020 -53006.1434 -32273.9029 302.7102 -200.3390 -175.8416 297317.5783 0.0588 0.0423
ENERGY: 250000 1634.5146 9389.7118 6355.3098 74.3272 -70639.3304 229.9067 0.0000 0.0000 20263.2919 -32692.2685 300.1752 -52955.5605 -32538.8085 301.9736 110.4306 135.3406 297464.8861 -2.1884 -2.2068
